Circuit: * D:\INGEÑERIA\Circuitos Electronicos I\labo 4\spice_emisor_solo.asc

Direct Newton iteration for .op point succeeded.

Date: Mon Jul 29 19:58:00 2024
Total elapsed time: 0.039 seconds.

tnom = 27
temp = 27
method = trap
totiter = 7
traniter = 0
tranpoints = 0
accept = 0
rejected = 0
matrix size = 13
fillins = 0
solver = Normal
Avg thread counts: 6.0/0.0/6.0/5.2
Matrix Compiler1:      47 opcodes
Matrix Compiler2: 1.04 KB object code size
